Circuit: * Z:\home\mohitk\repos\LTspiceXVII\practicals\Clipping.asc

.OP point found by inspection.

Date: Fri Dec 15 12:05:29 2023
Total elapsed time: 0.115 seconds.

tnom = 27
temp = 27
method = modified trap
totiter = 2175
traniter = 2175
tranpoints = 1055
accept = 1049
rejected = 6
matrix size = 4
fillins = 0
solver = Normal
Matrix Compiler1: 100 bytes object code size  0.2/0.1/[0.1]
Matrix Compiler2: 248 bytes object code size  0.2/0.2/[0.2]

